*Heading
*Part, name=part-1
*Node
1, 0.00732971, -0.00592188, -0.0296838
2, 0.00648149, -0.00649071, -0.0289734
3, 0.00697967, -0.0056291, -0.030882
4, 0.00527533, -0.00394246, -0.0320486
5, 0.00605477, -0.00088372, -0.0337907
6, 0.00575188, -0.00275712, -0.0332176
7, 0.00637588, -0.00450697, -0.0322747
8, 0.007184, -0.00391991, -0.0323926
9, 0.00709116, -0.00504845, -0.0317945
10, 0.00766034, -0.00457067, -0.0308648
11, 0.00635937, 0.00093703, -0.033469
12, 0.00560368, 0.00238619, -0.0333208
13, 0.00499358, 0.00100228, -0.0336297
14, 0.0030102, -0.00293019, -0.0290089
15, 0.00563831, -0.00540278, -0.030362
16, 0.00510383, -0.0065282, -0.0276062
17, 0.00405035, 0.00171195, -0.0330703
18, 0.00495363, -0.00098234, -0.0334984
19, 0.00418159, -0.00362663, -0.0306495
20, 0.00445261, -0.00221512, -0.0323865
** ... 7703 like lines cut
*Element, type=C3D10
1,  558,  608,  936,  1064, 1159, 1160, 1161, 1162, 1163, 1164
2,  110,  98,  1017,  1071, 1165, 1166, 1167, 1168, 1169, 1170
3,  430,  425,  426,  913, 1171, 1172, 1173, 1174, 1175, 1176
4,  500,  565,  562,  984, 1177, 1178, 1179, 1180, 1181, 1182
5,  843,  854,  982,  1121, 1183, 1184, 1185, 1186, 1187, 1188
6,  774,  958,  992,  1157, 1189, 1190, 1191, 1192, 1193, 1194
7,  814,  768,  819,  922, 1195, 1196, 1197, 1198, 1199, 1200
8,  599,  644,  645,  1054, 1201, 1202, 1203, 1204, 1205, 1206
9,  87,  53,  86,  986, 1207, 1208, 1209, 1210, 1211, 1212
10,  174,  225,  1041,  1094, 1213, 1214, 1215, 1216, 1217, 1218
11,  879,  838,  885,  1120, 1219, 1220, 1221, 1222, 1223, 1224
12,  768,  814,  933,  967, 1195, 1225, 1226, 1227, 1228, 1229
13,  46,  47,  44,  926, 1230, 1231, 1232, 1233, 1234, 1235
14,  843,  767,  975,  982, 1236, 1237, 1238, 1185, 1239, 1240
15,  496,  504,  994,  1057, 1241, 1242, 1243, 1244, 1245, 1246
16,  892,  880,  909,  1035, 1247, 1248, 1249, 1250, 1251, 1252
17,  617,  616,  574,  804, 1253, 1254, 1255, 1256, 1257, 1258
18,  191,  192,  190,  990, 1259, 1260, 1261, 1262, 1263, 1264
19,  1061,  839,  1068,  1114, 1265, 1266, 1267, 1268, 1269, 1270
20,  669,  622,  619,  1078, 1271, 1272, 1273, 1274, 1275, 1276
** ... 4630 like lines cut
*Elset, elset=allElems
1, 2, 3, 4, 5, 6, 7, 8, 9, 10
11, 12, 13, 14, 15, 16, 17, 18, 19, 20
21, 22, 23, 24, 25, 26, 27, 28, 29, 30
31, 32, 33, 34, 35, 36, 37, 38, 39, 40
41, 42, 43, 44, 45, 46, 47, 48, 49, 50
51, 52, 53, 54, 55, 56, 57, 58, 59, 60
61, 62, 63, 64, 65, 66, 67, 68, 69, 70
71, 72, 73, 74, 75, 76, 77, 78, 79, 80
81, 82, 83, 84, 85, 86, 87, 88, 89, 90
91, 92, 93, 94, 95, 96, 97, 98, 99, 100
101, 102, 103, 104, 105, 106, 107, 108, 109, 110
111, 112, 113, 114, 115, 116, 117, 118, 119, 120
121, 122, 123, 124, 125, 126, 127, 128, 129, 130
131, 132, 133, 134, 135, 136, 137, 138, 139, 140
141, 142, 143, 144, 145, 146, 147, 148, 149, 150
151, 152, 153, 154, 155, 156, 157, 158, 159, 160
161, 162, 163, 164, 165, 166, 167, 168, 169, 170
171, 172, 173, 174, 175, 176, 177, 178, 179, 180
181, 182, 183, 184, 185, 186, 187, 188, 189, 190
191, 192, 193, 194, 195, 196, 197, 198, 199, 200
** ... 445 like lines cut

*Solid Section, elset=allElems, material=tissue
,
*End Part
*Assembly, name=assembly-1
*Instance, name=instance-1, part=part-1
*End Instance
*Node
1, 0.00563831, -0.00540278, -0.030362
*Node
2, 0.00762312, 0.00850182, -0.00793157
*Node
3, 0.00435765, -0.0130176, -0.00867639
*Nset, nset=rf-1
1
*Nset, nset=rf-2
2
*Nset, nset=rf-3
3
*Nset, nset=rf-1-nset, instance=instance-1
1, 2, 3, 4, 7, 7431, 9, 3468, 7437, 7438
15, 16, 7441, 19, 7449, 7326, 39, 4009, 7342, 4667
4671, 7508, 7389, 7269, 7270, 7271, 4587, 7420
*Nset, nset=rf-2-nset, instance=instance-1
256, 7296, 258, 259, 3456, 7067, 5160, 307, 6451, 6199
316, 317, 6526, 6527, 6889, 369, 3826, 3454, 3455
*Nset, nset=rf-3-nset, instance=instance-1
2456, 1823, 6698, 4144, 4145, 52, 6075, 4806, 72, 6601
6600, 2381, 88, 94, 95, 4960, 113, 115, 6520
*Nset, nset=fix, instance=instance-1
761, 1000, 1158
*Surface, type=NODE, name=rf-1-nset_CNS_, internal
rf-1-nset, 1.
*Surface, type=NODE, name=rf-2-nset_CNS_, internal
rf-2-nset, 1.
*Surface, type=NODE, name=rf-3-nset_CNS_, internal
rf-3-nset, 1.
*Coupling, constraint name=rf-1, ref node=rf-1, surface=rf-1-nset_CNS_
*Kinematic
*Coupling, constraint name=rf-2, ref node=rf-2, surface=rf-2-nset_CNS_
*Kinematic
*Coupling, constraint name=rf-3, ref node=rf-3, surface=rf-3-nset_CNS_
*Kinematic
*End Assembly
*Material, name=tissue
*Elastic
10000000, 0.3
*Boundary
fix, 1, 1
fix, 2, 2
fix, 3, 3
fix, 4, 4
fix, 5, 5
fix, 6, 6
*Step, name=step-1, nlgeom=YES, inc=5000
*Static
0.001, 1.0, 1e-20, 1.0
*Cload, op=NEW
rf-1, 1, -6.683888748967391
rf-1, 2, 8.454211645352052
rf-1, 3, -7.448548610348922
*Cload, op=NEW
rf-2, 1, -12.653976889663483
rf-2, 2, -11.217195088269689
rf-2, 3, -10.6905142164855
*Cload, op=NEW
rf-3, 1, 6.602046447704543
rf-3, 2, 11.216960030750476
rf-3, 3, -14.379283286437392
*Restart, write, frequency=0
*Output, field, variable=PRESELECT
*Output, history, variable=PRESELECT
*FILE FORMAT, ASCII
*node file, frequency=5000
U, COORD
*El file, frequency=5000
S, COORD
*End Step